sol/case3012wp.m
function mpc = case3012wp
%CASE3012WP

%% MATPOWER Case Format : Version 2
mpc.version = '2';

%%-----  Power Flow Data  -----%%
%% system MVA base
mpc.baseMVA = 100;

%% bus data
%	bus_i	type	Pd	Qd	Gs	Bs	area	Vm	Va	baseKV	zone	Vmax	Vmin	lam_P	lam_Q	mu_Vmax	mu_Vmin
mpc.bus = [
	1	1	0	0	0	0	1	1.10684702	-0.312087364	220	1	1.11	0.95	139.1283	0.1415	0.0000	0.0000;
	2	1	0	0	0	0	1	1.10783391	1.36157736	220	1	1.11	0.95	138.5224	0.1032	0.0000	0.0000;
	3	1	0	0	0	0	1	1.06178803	-29.4799043	220	1	1.11	0.95	171.4264	-1.0675	0.0000	0.0000;
	4	1	0	0	0	0	1	1.06172812	-29.4892057	220	1	1.11	0.95	171.4422	-1.0671	0.0000	0.0000;
	5	1	0	0	0	0	1	1.07261567	-31.9040744	220	1	1.11	0.95	175.8341	-2.6827	0.0000	0.0000;
	6	1	0	0	0	0	1	1.075247	-5.90776678	220	1	1.11	0.95	144.4851	1.5872	0.0000	0.0000;
	7	1	0	0	0	0	1	1.07522682	-5.90901409	220	1	1.11	0.95	144.4801	1.5802	0.0000	0.0000;
	8	1	0	0	0	0	1	1.08154529	-17.8715684	220	1	1.11	0.95	138.9515	0.2176	0.0000	0.0000;
	9	1	0	0	0	0	1	1.0818389	-17.8536428	220	1	1.11	0.95	139.0165	0.2188	0.0000	0.0000;
	10	1	0	0	0	0	1	1.0846275	-21.6879464	220	1	1.11	0.95	74.6807	-10.6232	0.0000	0.0000;
	11	1	0	0	0	0	1	1.02258699	-12.785297	400	1	1.05	0.95	145.7285	1.5621	0.0000	0.0000;
	12	1	0	0	0	0	1	1.02268479	-12.7763675	400	1	1.05	0.95	145.7224	1.5551	0.0000	0.0000;
	13	1	0	0	0	0	1	1.00565953	-17.2274391	400	1	1.05	0.95	142.1576	1.6498	0.0000	0.0000;
	14	1	0	0	0	0	1	1.03453567	-17.7521231	220	1	1.11	0.95	161.3107	4.0597	0.0000	0.0000;
	15	1	0	0	0	0	1	1.03475505	-17.7467189	220	1	1.11	0.95	161.1552	4.0347	0.0000	0.0000;
	16	1	0	0	0	0	1	1.03481286	-17.7351895	220	1	1.11	0.95	161.1949	4.0415	0.0000	0.0000;
	17	1	0	0	0	0	1	1.01111581	-22.5416707	220	1	1.11	0.95	213.5679	10.7457	0.0000	0.0000;
	18	1	0	0	0	0	1	1.01759965	-22.0415034	220	1	1.11	0.95	191.1119	9.5755	0.0000	0.0000;
	19	1	0	0	0	0	1	1.02329928	-11.2482215	400	1	1.05	0.95	148.8865	3.0086	0.0000	0.0000;
	20	1	0	0	0	0	1	1.02335797	-11.2382914	400	1	1.05	0.95	148.8514	2.9998	0.0000	0.0000;
	21	1	0	0	0	0	1	1.00850022	-21.1151791	400	1	1.05	0.95	174.9261	9.3973	0.0000	0.0000;
	22	1	0	0	0	0	1	1.01162315	-16.845586	400	1	1.05	0.95	143.6888	2.1410	0.0000	0.0000;
	23	1	0	0	0	0	1	1.01162315	-16.845586	400	1	1.05	0.95	143.6888	2.1410	0.0000	0.0000;
	24	2	10.05	20.1	0	0	1	1.08345673	-23.5973488	220	1	1.11	0.95	158.6077	0.0000	0.0000	0.0000;
	25	2	10.05	20.1	0	0	1	1.08338982	-23.5934963	220	1	1.11	0.95	158.6100	-0.0000	0.0000	0.0000;
	26	1	0	0	0	0	1	1.08509422	-4.92634291	220	1	1.11	0.95	143.1189	1.2774	0.0000	0.0000;
	27	1	0	0	0	0	1	1.08522101	-4.93924957	220	1	1.11	0.95	143.1178	1.2760	0.0000	0.0000;
	28	1	0	0	0	0	1	1.03806916	-19.6985013	220	1	1.11	0.95	159.3953	1.3810	0.0000	0.0000;
	29	1	0	0	0	0	1	1.03801118	-19.6967127	220	1	1.11	0.95	159.3969	1.3820	0.0000	0.0000;
	30	1	0	0	0	0	1	1.03354428	-17.2050346	220	1	1.11	0.95	142.4076	2.7955	0.0000	0.0000;
	31	1	0	0	0	0	1	1.033478	-17.2189147	220	1	1.11	0.95	142.4893	2.8157	0.0000	0.0000;
	32	1	0	0	0	0	1	1.08443791	-2.62544467	220	1	1.11	0.95	141.5653	0.9340	0.0000	0.0000;
	33	1	0	0	0	0	1	1.0843383	-2.64885574	220	1	1.11	0.95	141.5815	0.9380	0.0000	0.0000;
	34	1	0	0	0	0	1	1.01866695	-14.8651227	400	1	1.05	0.95	150.3823	1.7144	0.0000	0.0000;
	35	1	0	0	0	0	1	1.01863253	-14.8701546	400	1	1.05	0.95	150.3891	1.7127	0.0000	0.0000;
	36	1	0	0	0	0	1	1.00746493	-18.0651902	400	1	1.05	0.95	152.2068	0.2674	0.0000	0.0000;
	37	3	48.68	86.21	0	0	1	1.11	0	220	1	1.11	0.95	138.9294	-0.0000	6212.7345	0.0000;
	38	2	54.54	89.93	0	0	1	1.11	1.65975017	220	1	1.11	0.95	138.3295	-0.0000	2711.5096	0.0000;
	39	2	20.1	40.19	0	0	1	1.11	1.6527693	220	1	1.11	0.95	138.3311	0.0000	4041.4816	0.0000;
	40	2	60.29	120.57	0	0	1	1.04758224	0.107866531	400	1	1.05	0.95	139.4399	-0.0000	0.0000	0.0000;
	41	2	60.29	120.57	0	0	1	1.04754721	0.115120665	400	1	1.05	0.95	139.4307	-0.0033	0.0000	0.0000;
	42	1	0	0	0	0	1	1.02527397	-19.0222247	220	1	1.11	0.95	163.0652	3.6024	0.0000	0.0000;
	43	1	0	0	0	0	1	1.0251631	-19.0266457	220	1	1.11	0.95	163.0808	3.6068	0.0000	0.0000;
	44	1	0	0	0	0	1	1.05	-1.48616135	400	1	1.05	0.95	139.4321	-1.9828	33625.7431	0.0000;
	45	1	0	0	0	0	1	1.04998442	-1.48974666	400	1	1.05	0.95	139.4348	-1.9812	0.0000	0.0000;
	46	1	0	0	0	0	1	1.03049884	-18.1179389	220	1	1.11	0.95	162.5411	4.2912	0.0000	0.0000;
	47	1	0	0	0	0	1	1.06023509	-8.12593214	220	1	1.11	0.95	146.1091	1.4933	0.0000	0.0000;
	48	1	0	0	0	0	1	1.06025262	-8.14215753	220	1	1.11	0.95	146.1159	1.4895	0.0000	0.0000;
	49	1	0	0	0	0	1	1.09562735	-11.9144583	220	2	1.11	0.95	145.9939	0.2425	0.0000	0.0000;
	50	1	0	0	0	0	1	1.09298843	-12.1465894	220	2	1.11	0.95	149.2947	0.3632	0.0000	0.0000;
	51	1	0	0	0	0	1	1.10530439	-10.4620838	220	2	1.11	0.95	147.0713	0.0824	0.0000	0.0000;
	52	1	0	0	0	0	1	1.10527891	-10.4670608	220	2	1.11	0.95	147.0787	0.0836	0.0000	0.0000;
	53	1	0	0	0	0	1	1.07318743	-14.0239653	220	2	1.11	0.95	148.0185	0.7983	0.0000	0.0000;
	54	1	3.23	1	0	0	1	1.0991042	-9.10405083	220	2	1.11	0.95	145.1276	-0.1035	0.0000	0.0000;
	55	1	0	0	0	0	1	1.09916414	-9.10513682	220	2	1.11	0.95	145.1329	-0.1056	0.0000	0.0000;
	56	1	0	0	0	0	1	1.03576565	-9.27989418	400	2	1.05	0.95	145.6901	-0.0972	0.0000	0.0000;
	57	2	26.12	60.29	0	0	1	1.10990526	-9.37444781	220	2	1.11	0.95	143.5200	-0.0000	0.0000	0.0000;
	58	2	54.26	120.57	0	0	1	1.10978796	-9.38598294	220	2	1.11	0.95	143.5052	0.0000	0.0000	0.0000;
	59	2	13.06	30.14	0	0	1	1.11	-9.37220223	220	2	1.11	0.95	143.5442	0.0007	4558.5118	0.0000;
	60	2	26.12	50.24	0	0	1	1.05	-7.98905	400	2	1.05	0.95	143.7898	0.0000	4906.7415	0.0000;
	61	2	26.12	50.24	0	0	1	1.05	-7.9810355	400	2	1.05	0.95	143.7823	-0.0000	2671.2265	0.0000;
	62	1	0	0	0	0	1	1.09355611	-9.84224778	220	2	1.11	0.95	145.9161	-0.0028	0.0000	0.0000;
	63	1	0	0	0	0	1	1.04509644	-13.325586	400	2	1.05	0.95	149.0208	-0.2695	0.0000	0.0000;
	64	1	0	0	0	0	1	1.04509604	-13.3267091	400	2	1.05	0.95	149.0210	-0.2707	0.0000	0.0000;
	65	1	0	0	0	0	1	1.04769182	-9.58932107	400	2	1.05	0.95	144.5670	0.0982	0.0000	0.0000;
	66	1	0	0	0	0	1	1.07970438	-12.3014146	220	2	1.11	0.95	146.7515	0.6932	0.0000	0.0000;
	67	1	0	0	0	0	1	1.07969258	-12.2964751	220	2	1.11	0.95	146.7504	0.6939	0.0000	0.0000;
	68	1	0	0	0	0	1	1.04564452	-9.63655329	400	2	1.05	0.95	145.8337	-0.0924	0.0000	0.0000;
	69	1	0	0	0	0	1	1.04562912	-9.63980779	400	2	1.05	0.95	145.8402	-0.0930	0.0000	0.0000;
	70	2	13.06	30.14	0	0	1	1.11	-9.27967107	220	2	1.11	0.95	146.4715	0.0000	2895.9552	0.0000;
	71	2	13.06	30.14	0	0	1	1.10993822	-9.2809673	220	2	1.11	0.95	146.4647	-0.0000	0.0000	0.0000;
	72	2	13.06	30.14	0	0	1	1.04317272	-9.50842322	400	2	1.05	0.95	146.4244	-0.2463	0.0000	0.0000;
	73	2	26.12	60.29	0	0	1	1.04320285	-9.50928714	400	2	1.05	0.95	146.4233	-0.2490	0.0000	0.0000;
	74	2	149.71	60.29	0	0	1	1.10483129	-10.5359496	220	2	1.11	0.95	144.6237	0.0596	0.0000	0.0000;
	75	1	29.14	10.05	0	0	1	1.10480798	-10.5382061	220	2	1.11	0.95	144.6253	0.0603	0.0000	0.0000;
	76	1	0	0	0	0	1	1.09599437	-10.064728	220	2	1.11	0.95	146.0690	-0.0485	0.0000	0.0000;
	77	1	0	0	0	0	1	1.0959926	-10.0605501	220	2	1.11	0.95	146.0639	-0.0492	0.0000	0.0000;
	78	1	0	0	0	0	1	1.10202967	-10.6786155	220	2	1.11	0.95	145.0351	0.0719	0.0000	0.0000;
	79	1	0	0	0	0	1	1.10205052	-10.6808905	220	2	1.11	0.95	145.0332	0.0722	0.0000	0.0000;
	80	1	0	0	0	0	1	1.05	-10.9216575	400	2	1.05	0.95	147.3243	-0.9291	19503.6049	0.0000;
	81	1	0	0	0	0	1	1.04996803	-10.9334207	400	2	1.05	0.95	147.3376	-0.9257	0.0000	0.0000;
	82	1	0	0	0	0	1	1.10140383	-11.3821445	220	2	1.11	0.95	146.5154	0.0773	0.0000	0.0000;
	83	1	0	0	0	0	1	1.10224609	-11.2539929	220	2	1.11	0.95	146.5614	0.0616	0.0000	0.0000;
	84	1	0	0	0	0	1	1.08096839	-11.1387239	220	2	1.11	0.95	145.9751	0.7584	0.0000	0.0000;
	85	1	0	0	0	0	1	1.09216006	-3.90778933	220	3	1.11	0.95	140.5317	0.2666	0.0000	0.0000;
	86	1	9.35	0	0	0	1	1.08540098	-8.88438345	220	3	1.11	0.95	148.5230	2.1545	0.0000	0.0000;
	87	1	8.18	0	0	0	1	1.08542902	-8.88398203	220	3	1.11	0.95	148.5150	2.1476	0.0000	0.0000;
	88	1	0	0	0	0	1	1.08705722	-2.97078289	220	3	1.11	0.95	137.6222	0.2349	0.0000	0.0000;
	89	1	0	0	0	0	1	1.08719714	-2.95701912	220	3	1.11	0.95	137.6132	0.2330	0.0000	0.0000;
	90	1	0	0	0	0	1	1.10895712	-2.38622727	220	3	1.11	0.95	136.8315	-0.0895	0.0000	0.0000;
	91	1	0	0	0	0	1	1.10896808	-2.38857675	220	3	1.11	0.95	136.8321	-0.0901	0.0000	0.0000;
	92	1	0	0	0	0	1	1.06418538	-4.37797598	220	3	1.11	0.95	139.4215	0.6955	0.0000	0.0000;
	93	1	0	0	0	0	1	1.06391566	-4.38558066	220	3	1.11	0.95	139.4334	0.6980	0.0000	0.0000;
	94	2	28.13	70.33	0	0	1	1.09753501	-2.06734938	220	3	1.11	0.95	136.7646	0.0006	0.0000	0.0000;
	95	2	42.2	103.49	0	0	1	1.10135532	-1.54170123	220	3	1.11	0.95	136.3562	0.0000	0.0000	0.0000;
	96	1	7.72	-24.99	0	0	1	1.08477926	-3.09338083	220	3	1.11	0.95	139.6130	0.3700	0.0000	0.0000;
	97	1	0	0	0	0	1	1.08474113	-3.09461035	220	3	1.11	0.95	139.6035	0.3699	0.0000	0.0000;
	98	2	32.15	142.68	0	0	1	1.05	-3.60743562	400	3	1.05	0.95	139.4376	-0.0000	6198.7125	0.0000;
	99	1	0	0	0	0	1	1.04993869	-3.63501366	400	3	1.05	0.95	139.4632	0.0016	0.0000	0.0000;
	100	1	0	0	0	0	1	1.06133018	-5.23593952	220	3	1.11	0.95	140.0262	1.1828	0.0000	0.0000;
	101	1	0	0	0	0	1	1.10457025	-1.98556376	220	3	1.11	0.95	136.3329	0.0596	0.0000	0.0000;
	102	1	0	0	0	0	1	1.10452398	-1.9828689	220	3	1.11	0.95	136.3326	0.0593	0.0000	0.0000;
	103	1	45.11	7.94	0	0	1	1.09494832	-3.71189462	220	3	1.11	0.95	140.1255	0.2131	0.0000	0.0000;
	104	1	0	0	0	0	1	1.09488808	-3.71687103	220	3	1.11	0.95	140.1265	0.2141	0.0000	0.0000;
	105	1	0	0	0	0	1	1.09591416	-1.83393044	220	3	1.11	0.95	136.4757	0.2211	0.0000	0.0000;
	106	1	0	0	0	0	1	1.0957885	-1.83707015	220	3	1.11	0.95	136.4754	0.2209	0.0000	0.0000;
	107	1	0	0	0	0	1	1.09921106	-3.27539155	220	3	1.11	0.95	139.8870	0.1159	0.0000	0.0000;
	108	1	0	0	0	0	1	1.09920908	-3.28070894	220	3	1.11	0.95	139.8925	0.1160	0.0000	0.0000;
	109	1	0	0	0	0	1	1.04453014	-1.74032899	400	3	1.05	0.95	139.8090	0.0421	0.0000	0.0000;
	110	1	0	0	0	0	1	1.04453826	-1.7419527	400	3	1.05	0.95	139.8093	0.0418	0.0000	0.0000;
	111	1	0	0	0	0	1	1.1001727	-1.70882203	220	3	1.11	0.95	135.9870	0.1324	0.0000	0.0000;
	112	1	0	0	0	0	1	1.10021404	-1.70771231	220	3	1.11	0.95	135.9832	0.1322	0.0000	0.0000;
	113	1	0	0	0	0	1	1.08211196	-3.21974855	220	3	1.11	0.95	137.8267	0.6235	0.0000	0.0000;
	114	1	0	0	0	0	1	1.08201984	-3.22992278	220	3	1.11	0.95	137.8353	0.6257	0.0000	0.0000;
	115	2	29.36	18.51	0	0	1	1.09360804	-2.95666469	220	3	1.11	0.95	138.0620	0.2813	0.0000	0.0000;
	116	1	0	0	0	0	1	1.09358793	-2.96800034	220	3	1.11	0.95	138.0736	0.2826	0.0000	0.0000;
	117	1	0	0	0	0	1	1.08546939	-8.86440544	220	3	1.11	0.95	148.4972	2.1485	0.0000	0.0000;
	118	1	0	0	0	0	1	1.08544994	-8.86202976	220	3	1.11	0.95	148.5027	2.1553	0.0000	0.0000;
	119	1	0	0	0	0	1	1.0490125	-4.75726477	220	3	1.11	0.95	140.1759	0.9872	0.0000	0.0000;
	120	1	0	0	0	0	1	1.04896822	-4.75902445	220	3	1.11	0.95	140.1802	0.9884	0.0000	0.0000;
	121	2	0	0	0	0	1	1.10754519	-1.72621063	220	3	1.11	0.95	135.9814	0.0015	0.0000	0.0000;
	122	2	10.05	44.21	0	0	1	1.10759395	-1.72569287	220	3	1.11	0.95	135.9762	0.0000	0.0000	0.0000;
	123	2	7.03	18.09	0	0	1	1.10456318	-1.72474668	220	3	1.11	0.95	136.4259	0.0000	0.0000	0.0000;
	124	2	8.04	21.1	0	0	1	1.10461596	-1.71426909	220	3	1.11	0.95	136.4097	-0.0000	0.0000	0.0000;
	125	1	0	0	0	0	1	1.09016565	-4.24445286	220	3	1.11	0.95	139.6278	0.3759	0.0000	0.0000;
	126	1	71.54	7.94	0	0	1	1.09020657	-4.2526521	220	3	1.11	0.95	139.6286	0.3765	0.0000	0.0000;
	127	1	0	0	0	0	1	1.04347769	-4.8220484	220	3	1.11	0.95	136.2945	0.9526	0.0000	0.0000;
	128	1	0	0	0	0	1	1.08238729	-2.61873987	220	3	1.11	0.95	141.2436	0.6021	0.0000	0.0000;
	129	1	0	0	0	0	1	1.0824103	-2.62108732	220	3	1.11	0.95	141.2346	0.6002	0.0000	0.0000;
	130	1	0	0	0	0	1	1.08179043	-3.17165847	220	3	1.11	0.95	138.9648	0.4396	0.0000	0.0000;
	131	1	0	0	0	0	1	1.08190003	-3.16294056	220	3	1.11	0.95	138.9512	0.4374	0.0000	0.0000;
	132	1	0	0	0	0	1	1.04606776	-5.09820044	400	3	1.05	0.95	140.8822	0.0604	0.0000	0.0000;
	133	1	0	0	0	0	1	1.04606776	-5.09820044	400	3	1.05	0.95	140.8822	0.0604	0.0000	0.0000;
	134	2	0	0	0	0	1	1.09304973	-2.6035434	220	3	1.11	0.95	137.1475	0.2315	0.0000	0.0000;
	135	2	9.04	20.1	0	0	1	1.09301817	-2.60494244	220	3	1.11	0.95	137.1427	0.2272	0.0000	0.0000;
	136	2	6.03	15.07	0	0	1	1.06662825	-4.04208642	220	3	1.11	0.95	136.6834	0.8021	0.0000	0.0000;
	137	1	0	0	0	0	1	1.06665321	-4.05364461	220	3	1.11	0.95	136.6911	0.8066	0.0000	0.0000;
	138	1	0	0	0	0	1	1.04692853	-10.792402	400	3	1.05	0.95	147.8881	-0.0093	0.0000	0.0000;
	139	1	0	0	0	0	1	1.04696122	-10.7946069	400	3	1.05	0.95	147.8831	-0.0108	0.0000	0.0000;
	140	1	0	0	0	0	1	1.04989267	-5.66036298	400	3	1.05	0.95	142.0564	-0.0359	0.0000	0.0000;
	141	1	0	0	0	0	1	1.04988883	-5.65786873	400	3	1.05	0.95	142.0597	-0.0347	0.0000	0.0000;
	142	1	0	0	0	0	1	1.03852473	-5.06133432	220	3	1.11	0.95	136.1493	1.1268	0.0000	0.0000;
	143	1	0	0	0	0	1	1.03860867	-5.05822274	220	3	1.11	0.95	136.1500	1.1288	0.0000	0.0000;
	144	2	18.34	15.86	0	0	1	1.10994996	-1.22453465	220	3	1.11	0.95	136.0631	-0.0000	0.0000	0.0000;
	145	2	41.01	43.07	0	0	1	1.11	-1.20388151	220	3	1.11	0.95	136.0557	0.0000	713.2331	0.0000;
	146	2	28.13	66.31	0	0	1	1.05	-4.08578549	400	3	1.05	0.95	139.6613	-0.0000	2025.4652	0.0000;
	147	1	0	0	0	0	1	1.04997243	-4.0844269	400	3	1.05	0.95	139.6581	0.0023	0.0000	0.0000;
	148	1	0	0	0	0	1	1.09359088	-3.8133835	220	3	1.11	0.95	140.1676	0.2460	0.0000	0.0000;
	149	1	0	0	0	0	1	1.09366403	-3.80709902	220	3	1.11	0.95	140.1599	0.2451	0.0000	0.0000;
	150	1	0	0	0	0	1	1.10350655	-1.73760949	220	3	1.11	0.95	136.3668	0.0104	0.0000	0.0000;
	151	1	0	0	0	0	1	1.09686512	-3.44113128	220	3	1.11	0.95	139.8229	0.1825	0.0000	0.0000;
	152	2	0	0	0	0	1	1.06421706	-4.37820829	220	3	1.11	0.95	139.4216	0.6943	0.0000	0.0000;
	153	2	0	0	0	0	1	1.06394723	-4.38581151	220	3	1.11	0.95	139.4334	0.6969	0.0000	0.0000;
	154	2	7.84	20.1	0	0	1	1.08949527	-11.689331	220	4	1.11	0.95	149.5029	0.5688	0.0000	0.0000;
	155	2	8.04	20.1	0	0	1	1.0894913	-11.7002966	220	4	1.11	0.95	149.5123	0.5690	0.0000	0.0000;
	156	1	0	0	0	0	1	1.06324141	-12.3479462	220	4	1.11	0.95	144.5665	2.2811	0.0000	0.0000;
	157	1	0	0	0	0	1	1.06320714	-12.3501635	220	4	1.11	0.95	144.5689	2.2820	0.0000	0.0000;
	158	1	0	0	0	0	1	1.05461751	-14.261914	220	4	1.11	0.95	145.3752	2.5010	0.0000	0.0000;
	159	1	0	0	0	0	1	1.08057167	-10.4785576	220	4	1.11	0.95	142.9763	1.5066	0.0000	0.0000;
	160	1	0	0	0	0	1	1.08048843	-10.488778	220	4	1.11	0.95	142.9826	1.5101	0.0000	0.0000;
	161	1	0	0	0	0	1	1.02289743	-10.439219	400	4	1.05	0.95	143.8029	2.1970	0.0000	0.0000;
	162	1	0	0	0	0	1	1.02286399	-10.4428887	400	4	1.05	0.95	143.8071	2.1991	0.0000	0.0000;
	163	1	0	0	0	0	1	1.02775394	-25.9824162	220	4	1.11	0.95	163.2795	3.0348	0.0000	0.0000;
	164	1	0	0	0	0	1	1.07709178	-30.1802561	220	4	1.11	0.95	165.6723	1.7051	0.0000	0.0000;
	165	1	0	0	0	0	1	1.07709178	-30.1802561	220	4	1.11	0.95	165.6723	1.7051	0.0000	0.0000;
	166	1	0	0	0	0	1	1.07400001	-26.7941569	220	4	1.11	0.95	161.1772	3.5795	0.0000	0.0000;
	167	1	0	0	0	0	1	1.07400001	-26.7941569	220	4	1.11	0.95	161.1772	3.5795	0.0000	0.0000;
	168	1	0	0	0	0	1	1.05400352	-14.5167601	220	4	1.11	0.95	145.4466	2.5288	0.0000	0.0000;
	169	2	0	0	0	0	1	1.08170127	-16.5775563	220	4	1.11	0.95	153.7145	0.8189	0.0000	0.0000;
	170	2	0	0	0	0	1	1.08168283	-16.5906554	220	4	1.11	0.95	153.7184	0.8175	0.0000	0.0000;
	171	1	0	0	0	0	1	1.11	-13.6225808	220	4	1.11	0.95	153.2065	0.0812	815.8946	0.0000;
	172	2	12.06	30.14	0	0	1	1.10419455	-27.9966504	220	4	1.11	0.95	163.1600	0.4129	0.0000	0.0000;
	173	2	9.39	2.43	0	0	1	1.10410277	-28.0060137	220	4	1.11	0.95	163.1660	0.4105	0.0000	0.0000;
	174	2	12.06	30.14	0	0	1	1.03210437	-26.5414419	400	4	1.05	0.95	163.0919	-0.0029	0.0000	0.0000;
	175	2	24.11	60.29	0	0	1	1.03209215	-26.5384932	400	4	1.05	0.95	163.0901	-0.0000	0.0000	0.0000;
	176	1	0	0	0	0	1	0.995696825	-24.7629017	220	4	1.11	0.95	161.2797	5.8757	0.0000	0.0000;
	177	1	0	0	0	0	1	0.995814245	-24.771166	220	4	1.11	0.95	161.2880	5.8688	0.0000	0.0000;
	178	1	0	0	0	0	1	1.05067665	-19.5924548	220	4	1.11	0.95	153.5191	5.2033	0.0000	0.0000;
	179	1	0	0	0	0	1	1.05069207	-19.5951866	220	4	1.11	0.95	153.5219	5.2026	0.0000	0.0000;
	180	2	26.12	64.3	0	0	1	1.11	-6.48057067	220	4	1.11	0.95	140.5581	0.0000	7185.0757	0.0000;
	181	2	26.12	64.3	0	0	1	1.11	-6.48759402	220	4	1.11	0.95	140.5596	0.0000	14183.5741	0.0000;
	182	2	26.12	64.51	0	0	1	1.11	-6.46485371	220	4	1.11	0.95	140.5434	-0.0000	3391.2131	0.0000;
	183	2	26.12	64.51	0	0	1	1.04943134	-6.00436529	400	4	1.05	0.95	140.7338	0.0958	0.0000	0.0000;
	184	1	0	0	0	0	1	1.04939961	-6.00536201	400	4	1.05	0.95	140.7340	0.0953	0.0000	0.0000;
	185	1	0	0	0	0	1	1.0808963	-30.2499019	220	4	1.11	0.95	165.5664	1.5191	0.0000	0.0000;
	186	1	0	0	0	0	1	1.0808963	-30.2499019	220	4	1.11	0.95	165.5664	1.5191	0.0000	0.0000;
	187	1	0	0	0	0	1	1.00888473	-11.8775035	400	4	1.05	0.95	144.6656	3.0265	0.0000	0.0000;
	188	1	0	0	0	0	1	0.979291253	-17.6036914	400	4	1.05	0.95	146.4834	4.6534	0.0000	0.0000;
	189	1	0	0	0	0	1	1.0213752	-9.9252241	400	4	1.05	0.95	143.2958	2.1852	0.0000	0.0000;
	190	1	0	0	0	0	1	1.02138795	-9.91875603	400	4	1.05	0.95	143.2900	2.1843	0.0000	0.0000;
	191	2	12.06	30.14	0	0	1	1.08366222	-16.7106999	220	4	1.11	0.95	153.7941	0.7134	0.0000	0.0000;
	192	2	14.66	30.65	0	0	1	1.08337081	-16.7512579	220	4	1.11	0.95	153.8197	0.7234	0.0000	0.0000;
	193	2	38.18	64.3	0	0	1	1.03296341	-10.133477	400	4	1.05	0.95	153.2629	0.5013	0.0000	0.0000;
	194	1	0	0	0	0	1	1.01491258	-32.3116893	220	4	1.11	0.95	169.9777	1.6856	0.0000	0.0000;
	195	1	0	0	0	0	1	1.01496162	-32.316727	220	4	1.11	0.95	169.9785	1.6798	0.0000	0.0000;
	196	1	0	0	0	0	1	1.07652443	-30.2690923	220	4	1.11	0.95	165.7364	1.7209	0.0000	0.0000;
	197	1	0	0	0	0	1	1.07653046	-30.2703443	220	4	1.11	0.95	165.7366	1.7206	0.0000	0.0000;
	198	1	0	0	0	0	1	1.02174225	-26.9621195	220	4	1.11	0.95	164.0648	3.2914	0.0000	0.0000;
	199	1	0	0	0	0	1	1.02172516	-26.9552203	220	4	1.11	0.95	164.0572	3.2947	0.0000	0.0000;
	200	1	0	0	0	0	1	0.979653559	-28.2669114	400	4	1.05	0.95	164.6275	2.8370	0.0000	0.0000;
...
];

%% generator data
%	bus	Pg	Qg	Qmax	Qmin	Vg	mBase	status	Pmax	Pmin	Pc1	Pc2	Qc1min	Qc1max	Qc2min	Qc2max	ramp_agc	ramp_10	ramp_30	ramp_q	apf	mu_Pmax	mu_Pmin	mu_Qmax	mu_Qmin
mpc.gen = [
	24	110.000145	98.9974523	140	-49	1.08345673	235.3	1	221	110	0	0	0	0	0	0	0	0	0	0	0	0.0000	0.0023	0.0000	0.0000;
	25	177.272214	-15.4644956	124	-22	1.08338982	235.3	1	200	135	0	0	0	0	0	0	0	0	0	0	0	0.0000	0.0000	0.0000	0.0000;
	37	370	76.370836	190	-19	1.11	426	1	370	240	0	0	0	0	0	0	0	0	0	0	0	31.8994	0.0000	0.0000	0.0000;
	37	370	76.370836	190	-19	1.11	426	1	370	240	0	0	0	0	0	0	0	0	0	0	0	31.8994	0.0000	0.0000	0.0000;
	38	370	18.1697215	190	-19	1.11	426	1	370	240	0	0	0	0	0	0	0	0	0	0	0	31.2995	0.0000	0.0000	0.0000;
	38	370	18.1697215	190	-19	1.11	426	1	370	240	0	0	0	0	0	0	0	0	0	0	0	31.2995	0.0000	0.0000	0.0000;
	39	370	96.7745688	190	-19	1.11	426	1	370	240	0	0	0	0	0	0	0	0	0	0	0	31.3011	0.0000	0.0000	0.0000;
	40	370	66.8899202	190	-19	1.04758224	426	1	370	240	0	0	0	0	0	0	0	0	0	0	0	32.4099	0.0000	0.0000	0.0000;
	40	370	66.8899202	190	-19	1.04758224	426	1	370	240	0	0	0	0	0	0	0	0	0	0	0	32.4099	0.0000	0.0000	0.0000;
	40	370	66.8899202	190	-19	1.04758224	426	1	370	240	0	0	0	0	0	0	0	0	0	0	0	32.4099	0.0000	0.0000	0.0000;
	41	370	-18.9998993	190	-19	1.04754721	426	1	370	240	0	0	0	0	0	0	0	0	0	0	0	32.4007	0.0000	0.0000	0.0033;
	41	370	-18.9998993	190	-19	1.04754721	426	1	370	240	0	0	0	0	0	0	0	0	0	0	0	32.4007	0.0000	0.0000	0.0033;
	41	370	-18.9998993	190	-19	1.04754721	426	1	370	240	0	0	0	0	0	0	0	0	0	0	0	32.4007	0.0000	0.0000	0.0033;
	57	191.239799	59.1728319	152	-33	1.10990526	235	1	215	110	0	0	0	0	0	0	0	0	0	0	0	0.0000	0.0000	0.0000	0.0000;
	57	197.25315	59.1728319	152	-33	1.10990526	235	1	220	125	0	0	0	0	0	0	0	0	0	0	0	0.0000	0.0000	0.0000	0.0000;
	58	125.000022	82.4457915	149	-33	1.10978796	235	1	225	125	0	0	0	0	0	0	0	0	0	0	0	0.0000	0.0148	0.0000	0.0000;
	58	0	0	149	-33	1	235	0	225	120	0	0	0	0	0	0	0	0	0	0	0	0.0000	0.0000	0.0000	0.0000;
	58	110.000022	82.4457915	149	-33	1.10978796	235	1	225	110	0	0	0	0	0	0	0	0	0	0	0	0.0000	0.0148	0.0000	0.0000;
	59	224.999986	148.999503	149	-33	1.11	235	1	225	110	0	0	0	0	0	0	0	0	0	0	0	0.0242	0.0000	0.0007	0.0000;
	60	534.999999	203.110671	363	-47	1.05	588	1	535	255	0	0	0	0	0	0	0	0	0	0	0	0.2698	0.0000	0.0000	0.0000;
	61	559.999999	-8.41485024	348	-100	1.05	588	1	560	250	0	0	0	0	0	0	0	0	0	0	0	0.2623	0.0000	0.0000	0.0000;
	70	129	47.1314037	105	-11	1.11	235	1	225	129	0	0	0	0	0	0	0	0	0	0	0	0.0000	1.6885	0.0000	0.0000;
	71	129	36.3424342	105	-11	1.10993822	235	1	225	129	0	0	0	0	0	0	0	0	0	0	0	0.0000	1.6953	0.0000	0.0000;
	71	0	0	99	-10	1	235	0	225	129	0	0	0	0	0	0	0	0	0	0	0	0.0000	0.0000	0.0000	0.0000;
	72	0	0	105	-11	1	235	0	225	129	0	0	0	0	0	0	0	0	0	0	0	0.0000	0.0000	0.0000	0.0000;
	72	129	-10.9999987	105	-11	1.04317272	235	1	225	129	0	0	0	0	0	0	0	0	0	0	0	0.0000	1.7356	0.0000	0.2463;
	73	129	-9.99999868	99	-10	1.04320285	235	1	225	129	0	0	0	0	0	0	0	0	0	0	0	0.0000	1.7367	0.0000	0.2490;
	73	129	-10.9999987	105	-11	1.04320285	235	1	225	129	0	0	0	0	0	0	0	0	0	0	0	0.0000	1.7367	0.0000	0.2490;
	74	112	59.9999945	60	0	1.10483129	120	1	112	0	0	0	0	0	0	0	0	0	0	0	0	144.6237	0.0000	0.0596	0.0000;
	94	220	130.93586	131	-6	1.09753501	270.6	1	220	125	0	0	0	0	0	0	0	0	0	0	0	2.7246	0.0000	0.0000	0.0000;
	94	225	130.93586	131	-6	1.09753501	270.6	1	225	140	0	0	0	0	0	0	0	0	0	0	0	2.7246	0.0000	0.0000	0.0000;
	95	225	97.1802565	131	-6	1.10135532	270.6	1	225	130	0	0	0	0	0	0	0	0	0	0	0	2.3162	0.0000	0.0000	0.0000;
	95	225	97.1802565	131	-6	1.10135532	270.6	1	225	125	0	0	0	0	0	0	0	0	0	0	0	2.3162	0.0000	0.0000	0.0000;
	95	225	97.1802565	131	-6	1.10135532	270.6	1	225	130	0	0	0	0	0	0	0	0	0	0	0	2.3162	0.0000	0.0000	0.0000;
	98	383	4.60575852	213	-31	1.05	426	1	383	220	0	0	0	0	0	0	0	0	0	0	0	12.8176	0.0000	0.0000	0.0000;
	98	380	0.154285281	119	-31	1.05	435.3	1	380	220	0	0	0	0	0	0	0	0	0	0	0	12.8176	0.0000	0.0000	0.0000;
	115	12	0	0	0	1.09360804	12	1	12	0	0	0	0	0	0	0	0	0	0	0	0	138.0620	0.0000	0.2813	0.0000;
	115	6	0	0	0	1.09360804	6	1	6	0	0	0	0	0	0	0	0	0	0	0	0	138.0620	0.0000	0.2813	0.0000;
	121	0	0	120	-10	1	270.6	0	225	120	0	0	0	0	0	0	0	0	0	0	0	0.0000	0.0000	0.0000	0.0000;
	122	225	108.975787	120	-10	1.10759395	270.6	1	225	120	0	0	0	0	0	0	0	0	0	0	0	5.4862	0.0000	0.0000	0.0000;
	123	120	71.0730422	73	-1	1.10456318	150	1	120	70	0	0	0	0	0	0	0	0	0	0	0	4.0959	0.0000	0.0000	0.0000;
	124	120	34.9688043	73	-1	1.10461596	150	1	120	70	0	0	0	0	0	0	0	0	0	0	0	4.0797	0.0000	0.0000	0.0000;
	134	0	0	80	0	1	150	0	120	70	0	0	0	0	0	0	0	0	0	0	0	0.0000	0.0000	0.0000	0.0000;
	135	119.999999	79.9999985	80	0	1.09301817	150	1	120	70	0	0	0	0	0	0	0	0	0	0	0	0.5527	0.0000	0.2272	0.0000;
	136	80.0000001	30.9999996	31	0	1.06662825	117.5	1	110	80	0	0	0	0	0	0	0	0	0	0	0	0.0000	3.2766	0.8021	0.0000;
	144	215	38.9129172	135	-35	1.10994996	270.6	1	215	135	0	0	0	0	0	0	0	0	0	0	0	7.8531	0.0000	0.0000	0.0000;
	145	215	72.2725846	135	-35	1.11	270.6	1	215	135	0	0	0	0	0	0	0	0	0	0	0	7.8457	0.0000	0.0000	0.0000;
	145	225	75.9787141	140	-35	1.11	270.6	1	225	135	0	0	0	0	0	0	0	0	0	0	0	7.8457	0.0000	0.0000	0.0000;
	146	225	44.1342814	140	-36	1.05	270.6	1	225	135	0	0	0	0	0	0	0	0	0	0	0	11.4513	0.0000	0.0000	0.0000;
	146	220	42.9123614	137	-36	1.05	270.6	1	220	135	0	0	0	0	0	0	0	0	0	0	0	11.4513	0.0000	0.0000	0.0000;
	152	0	0	72	-29	1	150	0	135	-135	0	0	0	0	0	0	0	0	0	0	0	0.0000	0.0000	0.0000	0.0000;
	152	0	0	72	-29	1	150	0	135	-135	0	0	0	0	0	0	0	0	0	0	0	0.0000	0.0000	0.0000	0.0000;
	153	0	0	72	-29	1	150	0	135	-135	0	0	0	0	0	0	0	0	0	0	0	0.0000	0.0000	0.0000	0.0000;
	153	0	0	72	-29	1	150	0	135	-135	0	0	0	0	0	0	0	0	0	0	0	0.0000	0.0000	0.0000	0.0000;
	154	120	84.9999994	85	-15	1.08949527	150	1	120	94	0	0	0	0	0	0	0	0	0	0	0	19.5129	0.0000	0.5688	0.0000;
	155	120	84.9999994	85	-15	1.0894913	150	1	120	94	0	0	0	0	0	0	0	0	0	0	0	19.5223	0.0000	0.5690	0.0000;
	155	0	0	85	-15	1	150	0	120	94	0	0	0	0	0	0	0	0	0	0	0	0.0000	0.0000	0.0000	0.0000;
	169	0	0	25	0	1	51.4	0	50	40	0	0	0	0	0	0	0	0	0	0	0	0.0000	0.0000	0.0000	0.0000;
	170	0	0	90	-15	1	150	0	120	80	0	0	0	0	0	0	0	0	0	0	0	0.0000	0.0000	0.0000	0.0000;
	170	0	0	25	0	1	51.4	0	50	45	0	0	0	0	0	0	0	0	0	0	0	0.0000	0.0000	0.0000	0.0000;
	172	228.27294	118.999999	119	-31	1.10419455	252.4	1	232	100	0	0	0	0	0	0	0	0	0	0	0	0.0000	0.0000	0.4129	0.0000;
	172	0	0	111	-21	1	237.5	0	205	135	0	0	0	0	0	0	0	0	0	0	0	0.0000	0.0000	0.0000	0.0000;
	173	0	0	111	-21	1	237.5	0	205	135	0	0	0	0	0	0	0	0	0	0	0	0.0000	0.0000	0.0000	0.0000;
	173	0	0	102	-15	1	252.4	0	222	90	0	0	0	0	0	0	0	0	0	0	0	0.0000	0.0000	0.0000	0.0000;
	174	90.0000048	-14.9998882	102	-15	1.03210437	252.4	1	222	90	0	0	0	0	0	0	0	0	0	0	0	0.0000	0.0681	0.0000	0.0029;
	175	90.0000047	41.4924725	102	-15	1.03209215	252.4	1	222	90	0	0	0	0	0	0	0	0	0	0	0	0.0000	0.0699	0.0000	0.0000;
	175	100.000005	39.8536744	93	-10	1.03209215	252.4	1	232	100	0	0	0	0	0	0	0	0	0	0	0	0.0000	0.0699	0.0000	0.0000;
	180	261	98.4622795	127	-35	1.11	287.3	1	261	104	0	0	0	0	0	0	0	0	0	0	0	1.5481	0.0000	0.0000	0.0000;
	180	261	98.4622795	127	-35	1.11	287.3	1	261	104	0	0	0	0	0	0	0	0	0	0	0	1.5481	0.0000	0.0000	0.0000;
	181	206	99.88603	103	-17	1.11	238.4	1	206	120	0	0	0	0	0	0	0	0	0	0	0	1.5496	0.0000	0.0000	0.0000;
	181	261	123.857575	127	-35	1.11	287.3	1	261	104	0	0	0	0	0	0	0	0	0	0	0	1.5496	0.0000	0.0000	0.0000;
	182	235	10.3464309	145	-38	1.11	263.9	1	235	94	0	0	0	0	0	0	0	0	0	0	0	1.5334	0.0000	0.0000	0.0000;
	182	235	10.3464309	145	-38	1.11	263.9	1	235	94	0	0	0	0	0	0	0	0	0	0	0	1.5334	0.0000	0.0000	0.0000;
	183	206	102.999997	103	-17	1.04943134	238.4	1	206	120	0	0	0	0	0	0	0	0	0	0	0	1.7238	0.0000	0.0958	0.0000;
	183	206	102.999997	103	-17	1.04943134	238.4	1	206	120	0	0	0	0	0	0	0	0	0	0	0	1.7238	0.0000	0.0958	0.0000;
	191	200	104	104	-23	1.08366222	233.2	1	200	150	0	0	0	0	0	0	0	0	0	0	0	28.3141	0.0000	0.7134	0.0000;
	192	200	104	104	-23	1.08337081	233.2	1	200	150	0	0	0	0	0	0	0	0	0	0	0	28.3397	0.0000	0.7234	0.0000;
	192	0	0	104	-23	1	233.2	0	200	145	0	0	0	0	0	0	0	0	0	0	0	0.0000	0.0000	0.0000	0.0000;
	192	0	0	104	-23	1	233.2	0	200	145	0	0	0	0	0	0	0	0	0	0	0	0.0000	0.0000	0.0000	0.0000;
	193	464	293.999999	294	-259	1.03296341	464	1	464	208	0	0	0	0	0	0	0	0	0	0	0	27.7829	0.0000	0.5013	0.0000;
	208	188	99.9999999	100	0	1.06979887	218.3	1	188	76	0	0	0	0	0	0	0	0	0	0	0	14.7284	0.0000	4.4983	0.0000;
	240	179	-61.9994137	105	-62	1.02418258	209	1	179	-200	0	0	0	0	0	0	0	0	0	0	0	24.6018	0.0000	0.0000	0.0000;
	240	179	-61.9994137	105	-62	1.02418258	209	1	179	-200	0	0	0	0	0	0	0	0	0	0	0	24.6018	0.0000	0.0000	0.0000;
	240	0	0	160	-100	1	209	0	179	-200	0	0	0	0	0	0	0	0	0	0	0	0.0000	0.0000	0.0000	0.0000;
	241	179	-10.9932256	160	-100	1.02418682	209	1	179	-200	0	0	0	0	0	0	0	0	0	0	0	24.5998	0.0000	0.0000	0.0000;
	244	220	8.69649926	100	0	1.11	177.1	1	220	112.5	0	0	0	0	0	0	0	0	0	0	0	138.0510	0.0000	0.0000	0.0000;
	254	53.0984056	20	20	0	1.0973678	78.8	1	55	23	0	0	0	0	0	0	0	0	0	0	0	0.0000	0.0000	40.0114	0.0000;
	254	48.1339767	20	20	0	1.0973678	68.8	1	50	25	0	0	0	0	0	0	0	0	0	0	0	0.0000	0.0000	40.0114	0.0000;
	254	48.1339767	20	20	0	1.0973678	68.8	1	50	25	0	0	0	0	0	0	0	0	0	0	0	0.0000	0.0000	40.0114	0.0000;
	254	21.2225405	20	20	0	1.0973678	27.6	1	23	7	0	0	0	0	0	0	0	0	0	0	0	0.0000	0.0000	40.0114	0.0000;
	267	2.1	0.9999999	1	0	1.05814502	0.7	1	2.1	0.45	0	0	0	0	0	0	0	0	0	0	0	159.0936	0.0000	3.2940	0.0000;
	268	2.1	0.999999678	1	0	1.07454292	0.7	1	2.1	0.45	0	0	0	0	0	0	0	0	0	0	0	148.3677	0.0000	1.0194	0.0000;
	278	0	0	5	0	1	10.3	0	7.15	5.85	0	0	0	0	0	0	0	0	0	0	0	0.0000	0.0000	0.0000	0.0000;
	279	0	0	5	0	1	10.3	0	7.15	5.85	0	0	0	0	0	0	0	0	0	0	0	0.0000	0.0000	0.0000	0.0000;
	295	5	3.74999988	3.75	0	1.08310651	5	1	5	1	0	0	0	0	0	0	0	0	0	0	0	159.2184	0.0000	2.7208	0.0000;
	295	5	3.74999988	3.75	0	1.08310651	5	1	5	1	0	0	0	0	0	0	0	0	0	0	0	159.2184	0.0000	2.7208	0.0000;
	295	5	3.74999988	3.75	0	1.08310651	5	1	5	1	0	0	0	0	0	0	0	0	0	0	0	159.2184	0.0000	2.7208	0.0000;
	295	5	3.74999988	3.75	0	1.08310651	5	1	5	1	0	0	0	0	0	0	0	0	0	0	0	159.2184	0.0000	2.7208	0.0000;
	310	370	189.999996	190	-19	0.999942163	426	1	370	240	0	0	0	0	0	0	0	0	0	0	0	31.6207	0.0000	0.0803	0.0000;
	316	0	0	2	0	1	4	0	5.73	1	0	0	0	0	0	0	0	0	0	0	0	0.0000	0.0000	0.0000	0.0000;
	316	0	0	2	0	1	4	0	5.73	1	0	0	0	0	0	0	0	0	0	0	0	0.0000	0.0000	0.0000	0.0000;
	376	6.6	4.99999989	5	0	1.09395796	8.4	1	6.6	5.4	0	0	0	0	0	0	0	0	0	0	0	147.8028	0.0000	3.0377	0.0000;
	379	0.899999998	0.999999814	1	0	1.11093936	0.9	1	0.9	0.3	0	0	0	0	0	0	0	0	0	0	0	144.3566	0.0000	1.7695	0.0000;
	379	0.899999998	0.999999814	1	0	1.11093936	0.9	1	0.9	0.3	0	0	0	0	0	0	0	0	0	0	0	144.3566	0.0000	1.7695	0.0000;
	379	0.899999998	0.999999814	1	0	1.11093936	0.9	1	0.9	0.3	0	0	0	0	0	0	0	0	0	0	0	144.3566	0.0000	1.7695	0.0000;
	383	27	6.99999977	7	0	1.11010265	31.3	1	27	11	0	0	0	0	0	0	0	0	0	0	0	144.5247	0.0000	1.4421	0.0000;
	383	30	6.99999977	7	0	1.11010265	39	1	30	11	0	0	0	0	0	0	0	0	0	0	0	144.5247	0.0000	1.4421	0.0000;
	383	30	5.99999977	6	0	1.11010265	40.6	1	30	9	0	0	0	0	0	0	0	0	0	0	0	144.5247	0.0000	1.4421	0.0000;
	384	55	14.9999997	15	0	1.11708229	68.8	1	55	20	0	0	0	0	0	0	0	0	0	0	0	144.8426	0.0000	1.1244	0.0000;
	384	55	14.9999997	15	0	1.11708229	68.8	1	55	20	0	0	0	0	0	0	0	0	0	0	0	144.8426	0.0000	1.1244	0.0000;
	385	40	6.80828608	15	0	1.11752095	48.5	1	40	10	0	0	0	0	0	0	0	0	0	0	0	145.0037	0.0000	0.0000	0.0000;
	385	55	6.80828608	15	0	1.11752095	68.8	1	55	20	0	0	0	0	0	0	0	0	0	0	0	145.0037	0.0000	0.0000	0.0000;
	387	50	19.9999998	20	0	1.11080373	68.8	1	50	25	0	0	0	0	0	0	0	0	0	0	0	144.3172	0.0000	1.8873	0.0000;
	387	100	19.9999998	20	0	1.11080373	147	1	100	55	0	0	0	0	0	0	0	0	0	0	0	144.3172	0.0000	1.8873	0.0000;
	388	60	39.9999997	40	0	1.11320827	68.8	1	60	25	0	0	0	0	0	0	0	0	0	0	0	144.1479	0.0000	1.0121	0.0000;
	399	2.75	2.99999984	3	0	1.10747563	3.8	1	2.75	2	0	0	0	0	0	0	0	0	0	0	0	144.8224	0.0000	2.0173	0.0000;
	433	1.65	0.999999795	1	0	1.08475223	1.9	1	1.65	1.35	0	0	0	0	0	0	0	0	0	0	0	161.3360	0.0000	1.6025	0.0000;
	455	51.5	25.7482328	57	-22	1.12	68.8	1	51.5	15	0	0	0	0	0	0	0	0	0	0	0	157.4129	0.0000	0.0000	0.0000;
	456	55	10.3285748	57	-22	1.12	68.8	1	55	15	0	0	0	0	0	0	0	0	0	0	0	159.2986	0.0000	0.0000	0.0000;
	457	55	11.909751	57	-22	1.11463835	68.8	1	55	15	0	0	0	0	0	0	0	0	0	0	0	152.4054	0.0000	0.0000	0.0000;
	457	77	12.8168859	71	-28	1.11463835	87.5	1	77	3	0	0	0	0	0	0	0	0	0	0	0	152.4054	0.0000	0.0000	0.0000;
	458	55	11.9680598	57	-22	1.11674298	68.8	1	55	15	0	0	0	0	0	0	0	0	0	0	0	157.3470	0.0000	0.0000	0.0000;
	458	55	11.9680598	57	-22	1.11674298	68.8	1	55	15	0	0	0	0	0	0	0	0	0	0	0	157.3470	0.0000	0.0000	0.0000;
	478	123.134198	41.5230191	137	-47	1.10312231	235.3	1	226	120	0	0	0	0	0	0	0	0	0	0	0	0.0000	0.0000	0.0000	0.0000;
	478	14.6453303	6.00527794	12	0	1.10312231	48.5	1	25	12	0	0	0	0	0	0	0	0	0	0	0	0.0000	0.0000	0.0000	0.0000;
	479	16.9999998	11.9999985	12	0	1.10016257	48.5	1	17	10	0	0	0	0	0	0	0	0	0	0	0	1.4473	0.0000	0.2155	0.0000;
	482	4.4	1.99999519	2	0	1.10614487	5.6	1	4.4	3.6	0	0	0	0	0	0	0	0	0	0	0	149.1063	0.0000	0.0688	0.0000;
	500	0.339999998	0.199999616	0.2	0	1.09299657	0.4	1	0.34	0	0	0	0	0	0	0	0	0	0	0	0	141.0469	0.0000	0.8577	0.0000;
	522	6.6	3.99999996	4	0	1.08865238	8.4	1	6.6	3	0	0	0	0	0	0	0	0	0	0	0	187.7049	0.0000	8.8071	0.0000;
	527	3.41	2.99999982	3	0	1.11037363	4.6	1	3.41	2.79	0	0	0	0	0	0	0	0	0	0	0	144.4928	0.0000	1.7805	0.0000;
	532	6.5	4.3345621	4.7	3.8	1.0991035	6.5	1	6.5	1	0	0	0	0	0	0	0	0	0	0	0	159.3309	0.0000	0.0000	0.0000;
	532	6.5	4.3345621	4.7	3.8	1.0991035	6.5	1	6.5	1	0	0	0	0	0	0	0	0	0	0	0	159.3309	0.0000	0.0000	0.0000;
	532	6.5	4.3345621	4.7	3.8	1.0991035	6.5	1	6.5	1	0	0	0	0	0	0	0	0	0	0	0	159.3309	0.0000	0.0000	0.0000;
	543	2.97	1.99999977	2	0	1.06046283	4.1	1	2.97	2.43	0	0	0	0	0	0	0	0	0	0	0	143.4383	0.0000	1.4584	0.0000;
	572	0	0	2	0	1	4.6	0	3.52	2.88	0	0	0	0	0	0	0	0	0	0	0	0.0000	0.0000	0.0000	0.0000;
	597	1.7	0.699999432	0.7	0	1.08711641	1.9	1	1.7	1	0	0	0	0	0	0	0	0	0	0	0	144.2996	0.0000	0.5788	0.0000;
	597	0	0	0.7	0	1	1.9	0	1.7	1	0	0	0	0	0	0	0	0	0	0	0	0.0000	0.0000	0.0000	0.0000;
	603	4.4	2.99999996	3	0	1.09203038	5.6	1	4.4	3	0	0	0	0	0	0	0	0	0	0	0	198.9657	0.0000	9.1087	0.0000;
	670	46.0776654	2.00000006	35	2	1.08086131	62.5	1	52	37	0	0	0	0	0	0	0	0	0	0	0	0.0000	0.0000	0.0000	5.4930;
	670	22.7586818	2.00000006	23	2	1.08086131	37.5	1	30	10	0	0	0	0	0	0	0	0	0	0	0	0.0000	0.0000	0.0000	5.4930;
	670	93.2758996	6.00000006	85	6	1.08086131	150	1	105	50	0	0	0	0	0	0	0	0	0	0	0	0.0000	0.0000	0.0000	5.4930;
	670	93.2758996	6.00000006	85	6	1.08086131	150	1	105	50	0	0	0	0	0	0	0	0	0	0	0	0.0000	0.0000	0.0000	5.4930;
	671	28.8501806	10.8420044	23	2	1.10245103	37.5	1	30	10	0	0	0	0	0	0	0	0	0	0	0	0.0000	0.0000	0.0000	0.0000;
	671	28.8501806	10.8420044	23	2	1.10245103	37.5	1	30	10	0	0	0	0	0	0	0	0	0	0	0	0.0000	0.0000	0.0000	0.0000;
	671	28.8501806	11.5211194	25	2	1.10245103	37.5	1	30	10	0	0	0	0	0	0	0	0	0	0	0	0.0000	0.0000	0.0000	0.0000;
	671	123.807134	26.5797483	85	6	1.10245103	150	1	125	68	0	0	0	0	0	0	0	0	0	0	0	0.0000	0.0000	0.0000	0.0000;
	671	103.808022	26.5797483	85	6	1.10245103	150	1	105	50	0	0	0	0	0	0	0	0	0	0	0	0.0000	0.0000	0.0000	0.0000;
	692	1.54	1.87476747e-07	0.7	0	1.07823876	1.9	1	1.54	1.26	0	0	0	0	0	0	0	0	0	0	0	127.7981	0.0000	0.0000	1.7532;
	694	1.4	0.999999767	1	0	1.06992908	3.8	1	1.4	0	0	0	0	0	0	0	0	0	0	0	0	162.5659	0.0000	1.4125	0.0000;
	700	35	17.9999999	18	2	1.09837697	37.5	1	35	9	0	0	0	0	0	0	0	0	0	0	0	163.7224	0.0000	3.7366	0.0000;
	700	20	29.9999999	30	2	1.09837697	37.5	1	20	9	0	0	0	0	0	0	0	0	0	0	0	163.7224	0.0000	3.7366	0.0000;
	701	35	17.9999999	18	2	1.09785295	37.5	1	35	9	0	0	0	0	0	0	0	0	0	0	0	132.6818	0.0000	4.8075	0.0000;
	701	35	17.9999999	18	2	1.09785295	37.5	1	35	9	0	0	0	0	0	0	0	0	0	0	0	132.6818	0.0000	4.8075	0.0000;
	701	35	17.9999999	18	2	1.09785295	37.5	1	35	9	0	0	0	0	0	0	0	0	0	0	0	132.6818	0.0000	4.8075	0.0000;
	701	97	64.9999999	65	6	1.09785295	121.3	1	97	30	0	0	0	0	0	0	0	0	0	0	0	132.6818	0.0000	4.8075	0.0000;
	702	35	17.9999999	18	2	1.09845932	37.5	1	35	9	0	0	0	0	0	0	0	0	0	0	0	164.2173	0.0000	3.9590	0.0000;
	702	30	17.9999999	18	2	1.09845932	37.5	1	30	9	0	0	0	0	0	0	0	0	0	0	0	164.2173	0.0000	3.9590	0.0000;
	702	28	13.9999999	14	2	1.09845932	31.5	1	28	9	0	0	0	0	0	0	0	0	0	0	0	164.2173	0.0000	3.9590	0.0000;
	735	8	3.99999955	4	0	1.09486677	5.3	1	8	1	0	0	0	0	0	0	0	0	0	0	0	146.4124	0.0000	0.7248	0.0000;
	735	2	1.99999955	2	0	1.09486677	2	1	2	1	0	0	0	0	0	0	0	0	0	0	0	146.4124	0.0000	0.7248	0.0000;
	752	4.4	4.49999986	4.5	0.2	1.09721019	5.8	1	4.4	3.6	0	0	0	0	0	0	0	0	0	0	0	171.4848	0.0000	2.2884	0.0000;
	766	2.7	0	0	0	1.09833761	5.8	1	2.7	0	0	0	0	0	0	0	0	0	0	0	0	150.1079	0.0000	0.5401	0.0000;
	775	4.9	0	0	0	1.09484737	4	1	4.9	0	0	0	0	0	0	0	0	0	0	0	0	149.5789	0.0000	0.3638	0.0000;
	798	93	14.7494307	30	0	1.1170504	65	1	93	0	0	0	0	0	0	0	0	0	0	0	0	146.2026	0.0000	0.0000	0.0000;
	798	35.9	14.7494307	30	0	1.1170504	65	1	35.9	0	0	0	0	0	0	0	0	0	0	0	0	146.2026	0.0000	0.0000	0.0000;
	801	0	0	0	0	1	12.4	0	2.5	0	0	0	0	0	0	0	0	0	0	0	0	0.0000	0.0000	0.0000	0.0000;
	808	6	0	0	0	1.09967296	4.7	1	6	0	0	0	0	0	0	0	0	0	0	0	0	148.6966	0.0000	1.1006	0.0000;
	809	6	0	0	0	1.09994191	5.8	1	6	0	0	0	0	0	0	0	0	0	0	0	0	148.6607	0.0000	1.0884	0.0000;
	846	130	-32.9999599	149	-33	1.10698146	235	1	225	130	0	0	0	0	0	0	0	0	0	0	0	0.0000	2.4531	0.0000	0.0082;
	847	110	106.067308	149	-33	1.10723256	235	1	225	110	0	0	0	0	0	0	0	0	0	0	0	0.0000	2.4010	0.0000	0.0000;
	854	2.5	0	0	0	1.07713055	3	1	2.5	0	0	0	0	0	0	0	0	0	0	0	0	154.9589	0.0000	1.5923	0.0000;
	860	12	0	0	0	1.09739122	12.4	1	12	0	0	0	0	0	0	0	0	0	0	0	0	148.3003	0.0000	1.0113	0.0000;
	870	170	29.9999981	30	0	1.11688127	167.6	1	170	66	0	0	0	0	0	0	0	0	0	0	0	144.4809	0.0000	0.1687	0.0000;
	870	61	29.9999981	30	0	1.11688127	71.6	1	61	34	0	0	0	0	0	0	0	0	0	0	0	144.4809	0.0000	0.1687	0.0000;
	876	21	0	0	0	1.10894078	8.3	1	21	0	0	0	0	0	0	0	0	0	0	0	0	145.4353	0.0000	0.4465	0.0000;
	890	7	0	0	0	1.10899798	5.6	1	7	0	0	0	0	0	0	0	0	0	0	0	0	146.0801	0.0000	0.3587	0.0000;
	893	0	0	0	0	1	3	0	10	0	0	0	0	0	0	0	0	0	0	0	0	0.0000	0.0000	0.0000	0.0000;
	908	30.4	0	0	0	1.10632182	3	1	30.4	0	0	0	0	0	0	0	0	0	0	0	0	147.0904	0.0000	1.1593	0.0000;
	913	2	0	0	0	1.06054947	0	1	2	0	0	0	0	0	0	0	0	0	0	0	0	160.0177	0.0000	3.5359	0.0000;
	918	0	0	0	0	1	1	0	1.9	0	0	0	0	0	0	0	0	0	0	0	0	0.0000	0.0000	0.0000	0.0000;
	929	0	0	0	0	1	2.1	0	2.02	1.34	0	0	0	0	0	0	0	0	0	0	0	0.0000	0.0000	0.0000	0.0000;
	934	129	51.7950104	105	-11	1.12	235	1	225	129	0	0	0	0	0	0	0	0	0	0	0	0.0000	2.6985	0.0000	0.0000;
	936	36	12.5243897	30	0	1.09402044	36.8	1	36	0	0	0	0	0	0	0	0	0	0	0	0	147.4868	0.0000	0.0000	0.0000;
	939	0	0	0	0	1	2.8	0	2.68	1.78	0	0	0	0	0	0	0	0	0	0	0	0.0000	0.0000	0.0000	0.0000;
	959	101	26.8197966	30	0	1.10971213	100.8	1	101	49	0	0	0	0	0	0	0	0	0	0	0	147.3788	0.0000	0.0000	0.0000;
	965	0	0	0	0	1	1.7	0	12	0	0	0	0	0	0	0	0	0	0	0	0	0.0000	0.0000	0.0000	0.0000;
	980	12	29.9999975	30	0	1.10251592	9.5	1	12	0	0	0	0	0	0	0	0	0	0	0	0	150.4123	0.0000	0.1313	0.0000;
	982	0	0	0	0	1	1.6	0	1.6	0.91	0	0	0	0	0	0	0	0	0	0	0	0.0000	0.0000	0.0000	0.0000;
	984	6	0	0	0	1.10749668	5.9	1	6	1	0	0	0	0	0	0	0	0	0	0	0	146.0763	0.0000	0.4432	0.0000;
	989	8.3	0	0	0	1.09594596	10.9	1	8.3	0	0	0	0	0	0	0	0	0	0	0	0	151.3792	0.0000	0.4091	0.0000;
	993	68	13.3184451	23	0	1.10598544	52	1	68	5	0	0	0	0	0	0	0	0	0	0	0	149.8694	0.0000	0.0000	0.0000;
	993	0	0	23	0	1	52	0	68	5	0	0	0	0	0	0	0	0	0	0	0	0.0000	0.0000	0.0000	0.0000;
	993	0	0	11	0	1	24.5	0	31	-32	0	0	0	0	0	0	0	0	0	0	0	0.0000	0.0000	0.0000	0.0000;
	993	0	0	10	0	1	24.5	0	31	-32	0	0	0	0	0	0	0	0	0	0	0	0.0000	0.0000	0.0000	0.0000;
	1008	0	0	10	0	1	69	0	50	0	0	0	0	0	0	0	0	0	0	0	0	0.0000	0.0000	0.0000	0.0000;
	1008	92	37.8864919	74	-15	1.11516064	57.6	1	125	92	0	0	0	0	0	0	0	0	0	0	0	0.0000	11.2905	0.0000	0.0000;
	1009	84	55.660687	74	-15	1.10369021	57.6	1	125	84	0	0	0	0	0	0	0	0	0	0	0	0.0000	8.0449	0.0000	0.0000;
	1009	0	0	10	0	1	40	0	30	0	0	0	0	0	0	0	0	0	0	0	0	0.0000	0.0000	0.0000	0.0000;
	1021	2.5	0	0	0	1.10356889	3.3	1	2.5	0	0	0	0	0	0	0	0	0	0	0	0	148.1126	0.0000	0.9442	0.0000;
	1049	3.35	0	0	0	1.08361346	3.8	1	3.35	2.23	0	0	0	0	0	0	0	0	0	0	0	148.9986	0.0000	0.3478	0.0000;
...
];

%% branch data
%	fbus	tbus	r	x	b	rateA	rateB	rateC	ratio	angle	status	angmin	angmax	Pf	Qf	Pt	Qt	mu_Sf	mu_St	mu_angmin	mu_angmax
mpc.branch = [
	9	11	0.00064	0.0305	0	400	400	400	1.10224	0	1	-360	360	-293.0886	-113.2297	293.7445	144.4862	0.0000	0.0000	0.0000	0.0000;
	13	12	0.00069	0.03946	0	250	250	250	0.9999	0	1	-360	360	-202.8493	-31.7291	203.1369	48.1733	0.0000	0.0000	0.0000	0.0000;
	21	19	0.00088	0.05709	0	330	330	330	0.9999	0	1	-360	360	-309.7092	5.5480	310.5392	48.2999	0.0000	0.0000	0.0000	0.0000;
	36	35	0.0007	0.03652	0	250	250	250	0.9999	0	1	-360	360	-157.0785	-23.1536	157.2524	32.2224	0.0000	0.0000	0.0000	0.0000;
	37	40	0.00036	0.02519	0	500	500	500	1.0686	0	1	-360	360	-8.6517	-36.3214	8.6564	36.6469	0.0000	0.0000	0.0000	0.0000;
	38	41	0.00036	0.02519	0	500	500	500	1.08671	0	1	-360	360	112.9851	-105.9674	-112.9024	111.7607	0.0000	0.0000	0.0000	0.0000;
	55	56	0.00034	0.02097	0	500	500	500	1.0755	0	1	-360	360	14.3058	-67.2831	-14.2904	68.2330	0.0000	0.0000	0.0000	0.0000;
	59	61	0.00034	0.02097	0	500	500	500	1.05955	0	1	-360	360	-127.4868	-8.3040	127.5373	11.4226	0.0000	0.0000	0.0000	0.0000;
	70	72	0.00081	0.03	0	400	400	400	1.0876	0	1	-360	360	12.0869	-77.1044	-12.0395	78.8588	0.0000	0.0000	0.0000	0.0000;
	107	109	0.00075	0.02445	-0.00832	330	330	330	1.06467	0	1	-360	360	-119.5617	-45.3462	119.6770	50.0034	0.0000	0.0000	0.0000	0.0000;
	108	110	0.0004	0.0253	0	500	500	500	1.07013	0	1	-360	360	-114.9405	-67.1543	115.0076	71.4037	0.0000	0.0000	0.0000	0.0000;
	144	147	0.00053	0.02875	-0.016	400	400	400	1.07702	0	1	-360	360	186.5286	-67.4333	-186.3317	79.8453	0.0000	0.0000	0.0000	0.0000;
	173	174	0.00064	0.0305	0	400	400	400	1.06172	0	1	-360	360	-89.3198	29.6683	89.3722	-27.1700	0.0000	0.0000	0.0000	0.0000;
	182	183	0.00023	0.023	0	500	500	500	1.07426	0	1	-360	360	-38.6113	-72.0687	38.6257	73.5088	0.0000	0.0000	0.0000	0.0000;
	181	184	0.00023	0.023	0	500	500	500	1.07426	0	1	-360	360	-40.3974	-71.8936	40.4121	73.3586	0.0000	0.0000	0.0000	0.0000;
	188	187	0.00032	0.04392	0	330	330	330	0.9999	0	1	-360	360	-224.8534	-52.9089	225.0314	77.3406	0.0000	0.0000	0.0000	0.0000;
	191	193	0.0003	0.02732	0	500	500	500	1.10871	0	1	-360	360	-425.1619	-169.7645	425.8200	229.7000	0.0000	0.0000	0.0000	0.0000;
	198	200	0.00035	0.02375	0	500	500	500	1.07313	0	1	-360	360	87.7981	-110.6783	-87.7210	115.9072	0.0000	0.0000	0.0000	0.0000;
	212	213	0.00051	0.0275	0	400	400	400	1.10394	0	1	-360	360	-80.5334	-92.8492	80.6096	96.9583	0.0000	0.0000	0.0000	0.0000;
	217	215	0.00084	0.06858	0	250	250	250	0.9999	0	1	-360	360	-141.8701	18.5538	142.0316	-5.3710	0.0000	0.0000	0.0000	0.0000;
	220	222	0.00033	0.02711	0	500	500	500	1.08613	0	1	-360	360	-168.1109	-121.0087	168.2606	133.3066	0.0000	0.0000	0.0000	0.0000;
	224	222	0.00032	0.0464	0	330	330	330	0.9999	0	1	-360	360	-219.3084	62.4733	219.4651	-39.7518	0.0000	0.0000	0.0000	0.0000;
	231	229	0.00113	0.05647	0	330	330	330	0.9999	0	1	-360	360	-113.5597	47.1618	113.7147	-39.4189	0.0000	0.0000	0.0000	0.0000;
	228	230	0.00075	0.02469	-0.008	330	330	330	1.04544	0	1	-360	360	-19.4081	-54.0304	19.4325	55.6661	0.0000	0.0000	0.0000	0.0000;
	3010	183	0.00029	0.00317	0.09184	1386	1386	1386	0	0	1	-360	360	-0.3479	13.8049	0.3489	-23.9146	0.0000	0.0000	0.0000	0.0000;
	3010	184	0.0003	0.00326	0.09536	1386	1386	1386	0	0	1	-360	360	0.3479	14.0489	-0.3469	-24.5453	0.0000	0.0000	0.0000	0.0000;
	244	84	0.01475	0.08595	0.13036	415	415	415	0	0	1	-360	360	220.0000	8.6965	-214.1723	9.6150	0.0000	0.0000	0.0000	0.0000;
	3007	92	0.01244	0.06959	0.1181	412	412	412	0	0	1	-360	360	-76.8835	37.9301	77.7241	-46.8378	0.0000	0.0000	0.0000	0.0000;
	3007	122	0.01207	0.06905	0.11519	412	412	412	0	0	1	-360	360	-169.4065	-7.7881	172.3612	10.8729	0.0000	0.0000	0.0000	0.0000;
	146	3008	0.00168	0.01604	0.51488	1206	1206	1206	0	0	1	-360	360	609.4091	-28.3828	-603.7500	25.9499	0.0000	0.0000	0.0000	0.0000;
	3011	172	0.0018	0.01616	0.0484	457	457	457	0	0	1	-360	360	-0.6469	36.9686	0.6703	-42.6915	0.0000	0.0000	0.0000	0.0000;
	3011	173	0.0018	0.01616	0.0484	457	457	457	0	0	1	-360	360	0.6469	37.4542	-0.6230	-43.1714	0.0000	0.0000	0.0000	0.0000;
	3012	63	0.00223	0.02209	0.69011	831	831	831	0	0	1	-360	360	-294.8021	-62.3624	296.6379	6.1570	0.0000	0.0000	0.0000	0.0000;
	3012	64	0.00223	0.02209	0.69011	831	831	831	0	0	1	-360	360	-294.7079	-62.3758	296.5426	6.1590	0.0000	0.0000	0.0000	0.0000;
	99	3006	0.00293	0.03054	0.95472	1206	1206	1206	0	0	1	-360	360	358.7712	-52.8378	-355.3500	-16.2755	0.0000	0.0000	0.0000	0.0000;
	58	30	0.01174	0.07014	0.12689	415	415	415	0	0	1	-360	360	238.5316	88.1011	-232.2312	-65.0509	0.0000	0.0000	0.0000	0.0000;
	37	107	0.00919	0.06614	0.10451	461	461	461	0	0	1	-360	360	106.2834	-0.0860	-105.4379	-6.5806	0.0000	0.0000	0.0000	0.0000;
	38	108	0.00822	0.05767	0.0982	465	465	465	0	0	1	-360	360	182.5763	-3.4430	-180.3519	7.0665	0.0000	0.0000	0.0000	0.0000;
	169	42	0.01698	0.12459	0.1957	373	373	373	0	0	1	-360	360	43.9401	32.3631	-43.3814	-49.9985	0.0000	0.0000	0.0000	0.0000;
	155	48	0.01298	0.06738	0.10284	335	335	335	0	0	1	-360	360	-93.1931	62.4309	94.6565	-66.7184	0.0000	0.0000	0.0000	0.0000;
	154	27	0.01068	0.0475	0.09495	415	415	415	0	0	1	-360	360	-272.7011	82.7372	280.0948	-61.0795	0.0000	0.0000	0.0000	0.0000;
	191	28	0.01436	0.10729	0.16081	373	373	373	0	0	1	-360	360	59.9311	30.0122	-59.3015	-43.4149	0.0000	0.0000	0.0000	0.0000;
	55	126	0.01488	0.08161	0.1148	347	347	347	0	0	1	-360	360	-117.1542	31.7533	119.0289	-35.2282	0.0000	0.0000	0.0000	0.0000;
	54	108	0.01116	0.07171	0.10367	362	362	362	0	0	1	-360	360	-165.6002	28.0436	168.2423	-23.5910	0.0000	0.0000	0.0000	0.0000;
	207	100	0.00552	0.05948	0.17077	427	427	427	0	0	1	-360	360	-177.0289	6.1449	178.5920	-8.4440	0.0000	0.0000	0.0000	0.0000;
	238	192	0.01118	0.06597	0.10778	362	362	362	0	0	1	-360	360	-253.8765	-22.9470	260.6604	50.9016	0.0000	0.0000	0.0000	0.0000;
	226	191	0.01682	0.08909	0.12993	400	400	400	0	0	1	-360	360	-183.0471	3.8423	188.1546	8.3865	0.0000	0.0000	0.0000	0.0000;
	225	192	0.01384	0.08702	0.13484	400	400	400	0	0	1	-360	360	-187.7548	-1.4730	192.1649	13.8228	0.0000	0.0000	0.0000	0.0000;
	242	195	0.01517	0.09938	0.14492	274	274	274	0	0	1	-360	360	42.3909	44.0753	-41.7886	-55.8767	0.0000	0.0000	0.0000	0.0000;
	59	16	0.01347	0.07316	0.13418	377	377	377	0	0	1	-360	360	244.1535	77.5517	-236.8314	-53.2331	0.0000	0.0000	0.0000	0.0000;
	233	25	0.01403	0.10413	0.15949	373	373	373	0	0	1	-360	360	-107.4977	-20.2769	108.9774	13.0625	0.0000	0.0000	0.0000	0.0000;
	117	70	0.00374	0.0438	0.10096	476	476	476	0	0	1	-360	360	14.6457	-67.9189	-14.5170	57.2588	0.0000	0.0000	0.0000	0.0000;
	190	99	0.00194	0.02007	0.54307	1316	1316	1316	0	0	1	-360	360	-590.2599	-84.4682	596.7975	93.8413	0.0000	0.0000	0.0000	0.0000;
	60	12	0.0015	0.01506	0.4032	1386	1386	1386	0	0	1	-360	360	610.4631	132.2902	-605.0680	-121.4347	0.0000	0.0000	0.0000	0.0000;
	214	174	0.00296	0.03484	0.9296	1358	1358	1358	0	0	1	-360	360	-73.9042	-43.9313	74.0570	-53.2414	0.0000	0.0000	0.0000	0.0000;
	138	72	0.00169	0.01931	0.53814	866	866	866	0	0	1	-360	360	-123.8778	3.1329	124.1308	-59.0140	0.0000	0.0000	0.0000	0.0000;
	41	110	0.00137	0.01569	0.43744	1386	1386	1386	0	0	1	-360	360	226.3467	-20.0130	-225.7068	-20.5244	0.0000	0.0000	0.0000	0.0000;
	40	141	0.00234	0.02677	0.74653	1386	1386	1386	0	0	1	-360	360	410.6354	-65.0986	-407.0275	24.2663	0.0000	0.0000	0.0000	0.0000;
	34	222	0.00217	0.02513	0.67098	1386	1386	1386	0	0	1	-360	360	615.4407	1.8357	-607.4919	21.3231	0.0000	0.0000	0.0000	0.0000;
	138	80	0.00152	0.01739	0.48083	866	866	866	0	0	1	-360	360	12.5497	-45.9229	-12.5422	-6.8480	0.0000	0.0000	0.0000	0.0000;
	140	80	0.00468	0.05347	1.48883	831	831	831	0	0	1	-360	360	188.3519	-90.0652	-186.8429	-56.8212	0.0000	0.0000	0.0000	0.0000;
	99	44	0.00355	0.03617	0.95894	1150	1150	1150	0	0	1	-360	360	-113.0029	-39.7991	113.4196	-61.6721	0.0000	0.0000	0.0000	0.0000;
	109	40	0.00195	0.02103	0.5679	1316	1316	1316	0	0	1	-360	360	-167.5251	-27.8990	168.0268	-28.8313	0.0000	0.0000	0.0000	0.0000;
	63	139	0.00144	0.01446	0.51213	1386	1386	1386	0	0	1	-360	360	-331.4713	-1.0546	332.9294	-40.3395	0.0000	0.0000	0.0000	0.0000;
	14	6	0.013	0.09781	0.14013	461	461	461	0	0	1	-360	360	-231.8420	4.4694	238.3882	29.1841	0.0000	0.0000	0.0000	0.0000;
	43	14	0.00525	0.03847	0.06053	373	373	373	0	0	1	-360	360	-63.4541	-18.8155	63.6675	13.9589	0.0000	0.0000	0.0000	0.0000;
	33	6	0.00457	0.03351	0.05245	427	427	427	0	0	1	-360	360	198.8750	4.8394	-197.3353	0.3351	0.0000	0.0000	0.0000	0.0000;
	24	9	0.01469	0.10915	0.16676	427	427	427	0	0	1	-360	360	-104.6343	11.2917	106.0600	-20.2449	0.0000	0.0000	0.0000	0.0000;
	29	16	0.01262	0.09326	0.14324	373	373	373	0	0	1	-360	360	-38.1518	1.6806	38.3326	-15.7305	0.0000	0.0000	0.0000	0.0000;
	37	7	0.00924	0.05052	0.07698	366	366	366	0	0	1	-360	360	251.0808	38.2899	-246.2142	-20.8738	0.0000	0.0000	0.0000	0.0000;
	24	3	0.01068	0.07936	0.12155	274	274	274	0	0	1	-360	360	150.8454	9.7820	-148.7492	-8.1915	0.0000	0.0000	0.0000	0.0000;
	37	27	0.00585	0.04027	0.07161	495	495	495	0	0	1	-360	360	263.5234	36.7153	-260.1459	-22.0935	0.0000	0.0000	0.0000	0.0000;
	39	26	0.00585	0.04027	0.07161	495	495	495	0	0	1	-360	360	348.1743	33.3561	-342.3508	-1.8959	0.0000	0.0000	0.0000	0.0000;
	15	8	0.00558	0.04147	0.0629	373	373	373	0	0	1	-360	360	-9.6533	-118.8126	10.3527	116.9644	0.0000	0.0000	0.0000	0.0000;
	46	14	0.00089	0.0063	0.0108	373	373	373	0	0	1	-360	360	-115.0251	-50.0098	115.1564	49.7883	0.0000	0.0000	0.0000	0.0000;
	31	15	0.00442	0.02374	0.04477	415	415	415	0	0	1	-360	360	39.1394	-15.0463	-39.0694	10.6347	0.0000	0.0000	0.0000	0.0000;
	47	7	0.00494	0.0269	0.04225	335	335	335	0	0	1	-360	360	-168.5192	-27.3437	169.7947	29.4719	0.0000	0.0000	0.0000	0.0000;
	26	6	0.00287	0.01671	0.02467	366	366	366	0	0	1	-360	360	127.0068	41.7028	-126.5682	-42.0278	0.0000	0.0000	0.0000	0.0000;
	37	1	0.0012	0.0089	0.01512	747	747	747	0	0	1	-360	360	79.0840	27.9340	-79.0150	-29.2797	0.0000	0.0000	0.0000	0.0000;
	39	2	0.0012	0.0089	0.01513	747	747	747	0	0	1	-360	360	72.5676	16.4772	-72.5134	-17.9355	0.0000	0.0000	0.0000	0.0000;
	38	32	0.00399	0.02901	0.04808	476	476	476	0	0	1	-360	360	319.0559	62.5624	-315.6203	-43.3724	0.0000	0.0000	0.0000	0.0000;
	34	12	0.00298	0.03445	0.94221	831	831	831	0	0	1	-360	360	-110.2472	-49.2204	110.5962	-44.9023	0.0000	0.0000	0.0000	0.0000;
	40	34	0.00358	0.04122	1.13382	1386	1386	1386	0	0	1	-360	360	677.7771	40.3050	-662.4484	15.1474	0.0000	0.0000	0.0000	0.0000;
	20	41	0.00342	0.03928	1.08288	1316	1316	1316	0	0	1	-360	360	-534.0525	-19.8190	543.4110	11.1866	0.0000	0.0000	0.0000	0.0000;
	11	22	0.00286	0.0335	0.89392	1358	1358	1358	0	0	1	-360	360	220.5590	-24.3501	-219.2148	-52.3837	0.0000	0.0000	0.0000	0.0000;
	11	20	0.0011	0.01259	0.3496	1358	1358	1358	0	0	1	-360	360	-222.9781	-2.0292	223.5039	-28.5375	0.0000	0.0000	0.0000	0.0000;
	44	41	0.00076	0.00868	0.24096	1358	1358	1358	0	0	1	-360	360	-348.4027	51.8418	349.2686	-68.4551	0.0000	0.0000	0.0000	0.0000;
	79	74	0.01054	0.06151	0.09306	316	316	316	0	0	1	-360	360	-5.6930	-9.6515	5.6972	-1.6548	0.0000	0.0000	0.0000	0.0000;
	76	71	0.00905	0.06723	0.10296	373	373	373	0	0	1	-360	360	-27.2935	-25.0719	27.3765	13.1626	0.0000	0.0000	0.0000	0.0000;
	83	49	0.0114	0.06587	0.09975	274	274	274	0	0	1	-360	360	22.4005	1.2610	-22.3484	-13.0065	0.0000	0.0000	0.0000	0.0000;
	66	49	0.0107	0.06628	0.10825	377	377	377	0	0	1	-360	360	-15.8222	-29.6533	15.8952	17.2986	0.0000	0.0000	0.0000	0.0000;
	74	57	0.00543	0.03733	0.06668	446	446	446	0	0	1	-360	360	-67.2506	-8.6296	67.4527	1.8423	0.0000	0.0000	0.0000	0.0000;
	75	59	0.00543	0.03733	0.06668	446	446	446	0	0	1	-360	360	-67.5565	-8.9287	67.7605	2.1544	0.0000	0.0000	0.0000	0.0000;
	75	49	0.00657	0.0481	0.0727	419	419	419	0	0	1	-360	360	62.2598	8.8719	-62.0416	-16.0749	0.0000	0.0000	0.0000	0.0000;
	84	67	0.00302	0.0201	0.03069	415	415	415	0	0	1	-360	360	115.9144	-11.1624	-115.5649	9.9069	0.0000	0.0000	0.0000	0.0000;
	67	53	0.007	0.05138	0.08084	373	373	373	0	0	1	-360	360	68.7110	0.6217	-68.4258	-7.8955	0.0000	0.0000	0.0000	0.0000;
	51	70	0.00329	0.02506	0.0439	427	427	427	0	0	1	-360	360	-101.8541	-8.9778	102.1345	5.7279	0.0000	0.0000	0.0000	0.0000;
	52	50	0.00789	0.05868	0.08985	373	373	373	0	0	1	-360	360	62.4420	10.1504	-62.1744	-19.0151	0.0000	0.0000	0.0000	0.0000;
	71	52	0.00558	0.04062	0.06491	446	446	446	0	0	1	-360	360	63.1626	0.7036	-62.9809	-7.3441	0.0000	0.0000	0.0000	0.0000;
	83	51	0.00452	0.03366	0.05156	446	446	446	0	0	1	-360	360	-50.4141	-6.0315	50.5090	0.4563	0.0000	0.0000	0.0000	0.0000;
	83	82	0.00134	0.00996	0.01337	377	377	377	0	0	1	-360	360	28.0137	4.7705	-28.0047	-6.3267	0.0000	0.0000	0.0000	0.0000;
	78	57	0.00618	0.04353	0.07649	446	446	446	0	0	1	-360	360	-65.3633	-14.5754	65.5857	6.7860	0.0000	0.0000	0.0000	0.0000;
	79	58	0.00618	0.04353	0.07649	347	347	347	0	0	1	-360	360	-64.8657	-14.3073	65.0845	6.4935	0.0000	0.0000	0.0000	0.0000;
	78	54	0.01219	0.0637	0.09333	347	347	347	0	0	1	-360	360	-49.3361	9.5531	49.6037	-19.4595	0.0000	0.0000	0.0000	0.0000;
	77	55	0.00246	0.01826	0.02798	373	373	373	0	0	1	-360	360	-110.4429	-4.9204	110.6929	3.4055	0.0000	0.0000	0.0000	0.0000;
	62	54	0.00242	0.01531	0.02249	377	377	377	0	0	1	-360	360	-104.6898	-23.7739	104.9218	22.5382	0.0000	0.0000	0.0000	0.0000;
	65	61	0.0017	0.01977	0.53386	1358	1358	1358	0	0	1	-360	360	-155.8815	-25.9357	156.2580	-28.4146	0.0000	0.0000	0.0000	0.0000;
	73	69	0.00116	0.013	0.33856	1358	1358	1358	0	0	1	-360	360	17.2417	-39.4089	-17.2338	2.5667	0.0000	0.0000	0.0000	0.0000;
	56	72	0.00218	0.02536	0.68579	1358	1358	1358	0	0	1	-360	360	14.2904	-68.2330	-14.2661	-5.5852	0.0000	0.0000	0.0000	0.0000;
	80	73	0.00105	0.01123	0.28195	1386	1386	1386	0	0	1	-360	360	-232.1654	72.6812	232.7529	-97.2825	0.0000	0.0000	0.0000	0.0000;
	64	81	0.00119	0.01428	0.36666	1386	1386	1386	0	0	1	-360	360	-321.0687	-22.2214	322.1919	-4.5350	0.0000	0.0000	0.0000	0.0000;
	68	60	0.00184	0.02139	0.5777	1358	1358	1358	0	0	1	-360	360	-148.1258	-38.0099	148.4957	-21.1174	0.0000	0.0000	0.0000	0.0000;
	113	144	0.00488	0.03362	0.05961	446	446	446	0	0	1	-360	360	-134.2448	-71.4392	135.1882	70.7771	0.0000	0.0000	0.0000	0.0000;
	91	124	0.01093	0.05919	0.08439	290	290	290	0	0	1	-360	360	-22.0713	7.1838	22.1282	-17.2134	0.0000	0.0000	0.0000	0.0000;
	124	111	0.00194	0.01415	0.0223	446	446	446	0	0	1	-360	360	3.8664	32.7956	-3.8476	-35.3686	0.0000	0.0000	0.0000	0.0000;
	95	150	0.00192	0.01355	0.023	446	446	446	0	0	1	-360	360	27.6433	-22.7449	-27.6239	20.0858	0.0000	0.0000	0.0000	0.0000;
	150	102	0.00238	0.01667	0.02846	446	446	446	0	0	1	-360	360	29.7397	-12.6470	-29.7201	9.3155	0.0000	0.0000	0.0000	0.0000;
	123	150	0.00279	0.02017	0.03204	446	446	446	0	0	1	-360	360	2.1166	3.5392	-2.1158	-7.4388	0.0000	0.0000	0.0000	0.0000;
	151	149	0.00066	0.00496	0.00758	419	419	419	0	0	1	-360	360	161.1127	49.3885	-160.9567	-49.1253	0.0000	0.0000	0.0000	0.0000;
	123	151	0.00537	0.04039	0.06005	419	419	419	0	0	1	-360	360	91.2112	6.6080	-90.8404	-11.0945	0.0000	0.0000	0.0000	0.0000;
	108	151	0.00083	0.00525	0.00868	305	305	305	0	0	1	-360	360	70.3162	37.5253	-70.2723	-38.2941	0.0000	0.0000	0.0000	0.0000;
	117	137	0.01589	0.0876	0.11682	347	347	347	0	0	1	-360	360	-102.4021	39.6646	104.1085	-43.7852	0.0000	0.0000	0.0000	0.0000;
	97	130	0.00217	0.01459	0.02575	316	316	316	0	0	1	-360	360	13.7749	18.3815	-13.7641	-21.3306	0.0000	0.0000	0.0000	0.0000;
	134	118	0.01773	0.11678	0.16361	335	335	335	0	0	1	-360	360	110.2139	-13.3385	-108.4094	5.8120	0.0000	0.0000	0.0000	0.0000;
	145	90	0.00593	0.04093	0.07215	446	446	446	0	0	1	-360	360	61.2728	-9.8536	-61.0907	2.2292	0.0000	0.0000	0.0000	0.0000;
	125	107	0.0039	0.02847	0.04498	427	427	427	0	0	1	-360	360	-74.4511	-26.5085	74.6516	22.5822	0.0000	0.0000	0.0000	0.0000;
	136	95	0.00816	0.04242	0.0612	385	385	385	0	0	1	-360	360	-132.2113	-62.7317	133.7168	63.3651	0.0000	0.0000	0.0000	0.0000;
	137	94	0.00816	0.04242	0.0612	385	385	385	0	0	1	-360	360	-106.3380	-59.0204	107.3702	57.2189	0.0000	0.0000	0.0000	0.0000;
	95	92	0.00519	0.03839	0.05875	495	495	495	0	0	1	-360	360	163.0113	84.7744	-161.5405	-80.7844	0.0000	0.0000	0.0000	0.0000;
	94	89	0.00213	0.01403	0.0226	335	335	335	0	0	1	-360	360	141.2339	59.0932	-140.8166	-59.0411	0.0000	0.0000	0.0000	0.0000;
	131	94	0.00463	0.02775	0.04612	362	362	362	0	0	1	-360	360	-89.3688	-47.9627	89.7657	44.8650	0.0000	0.0000	0.0000	0.0000;
	120	88	0.01122	0.07074	0.11571	290	290	290	0	0	1	-360	360	-57.6843	-52.9120	58.2445	43.2414	0.0000	0.0000	0.0000	0.0000;
	127	135	0.00601	0.04147	0.07364	427	427	427	0	0	1	-360	360	-121.6106	-108.9809	123.0351	110.4023	0.0000	0.0000	0.0000	0.0000;
	108	85	0.00207	0.01279	0.02055	316	316	316	0	0	1	-360	360	109.7488	42.1397	-109.5102	-43.1326	0.0000	0.0000	0.0000	0.0000;
	103	107	0.00136	0.0099	0.01586	495	495	495	0	0	1	-360	360	-97.2126	-34.3897	97.3325	33.3535	0.0000	0.0000	0.0000	0.0000;
	148	104	0.00058	0.00417	0.00684	446	446	446	0	0	1	-360	360	-52.0854	-27.1432	52.1021	26.4438	0.0000	0.0000	0.0000	0.0000;
	152	92	0.00085	0.00624	0.00954	457	457	457	0	0	1	-360	360	0.0000	-0.0000	0.0000	-1.0804	0.0000	0.0000	0.0000	0.0000;
	153	93	0.00085	0.00626	0.00948	457	457	457	0	0	1	-360	360	0.0000	0.0000	0.0000	-1.0731	0.0000	0.0000	0.0000	0.0000;
	119	93	0.00159	0.01112	0.01913	492	492	492	0	0	1	-360	360	-83.4731	-129.4959	83.8122	129.7319	0.0000	0.0000	0.0000	0.0000;
	144	121	0.00314	0.02159	0.03839	446	446	446	0	0	1	-360	360	50.6140	2.8553	-50.5480	-7.1209	0.0000	0.0000	0.0000	0.0000;
	145	128	0.00455	0.03157	0.05531	373	373	373	0	0	1	-360	360	105.9268	79.5725	-105.2582	-81.5805	0.0000	0.0000	0.0000	0.0000;
	121	101	0.00145	0.01008	0.01719	373	373	373	0	0	1	-360	360	58.4471	23.3499	-58.3997	-25.1232	0.0000	0.0000	0.0000	0.0000;
	122	112	0.00384	0.02721	0.04517	373	373	373	0	0	1	-360	360	2.7787	26.8776	-2.7509	-32.1854	0.0000	0.0000	0.0000	0.0000;
	129	96	0.00777	0.04128	0.06391	316	316	316	0	0	1	-360	360	21.5326	-13.9119	-21.4950	6.6076	0.0000	0.0000	0.0000	0.0000;
	106	94	0.00446	0.03041	0.04867	290	290	290	0	0	1	-360	360	14.6613	-11.3337	-14.6507	5.5527	0.0000	0.0000	0.0000	0.0000;
	135	125	0.00589	0.03506	0.05235	362	362	362	0	0	1	-360	360	96.2502	-9.0127	-95.7917	5.5036	0.0000	0.0000	0.0000	0.0000;
	126	116	0.00316	0.02378	0.03527	373	373	373	0	0	1	-360	360	-112.3121	-1.4133	112.6474	-0.2679	0.0000	0.0000	0.0000	0.0000;
	134	95	0.00184	0.0126	0.0224	373	373	373	0	0	1	-360	360	-183.4260	-44.9623	183.9734	46.0146	0.0000	0.0000	0.0000	0.0000;
	123	105	0.00171	0.00961	0.01424	335	335	335	0	0	1	-360	360	40.4172	91.3732	-40.2751	-92.2982	0.0000	0.0000	0.0000	0.0000;
	115	95	0.00341	0.02442	0.03997	427	427	427	0	0	1	-360	360	-124.0096	-18.2644	124.4552	16.6416	0.0000	0.0000	0.0000	0.0000;
	135	94	0.00184	0.0126	0.02239	373	373	373	0	0	1	-360	360	-93.0078	-26.5188	93.1508	24.8120	0.0000	0.0000	0.0000	0.0000;
	100	114	0.0057	0.04149	0.06617	446	446	446	0	0	1	-360	360	-101.9998	-40.9425	102.5963	37.6845	0.0000	0.0000	0.0000	0.0000;
	143	136	0.00459	0.02463	0.03616	347	347	347	0	0	1	-360	360	-98.2394	-101.0894	99.0683	101.5299	0.0000	0.0000	0.0000	0.0000;
	142	127	0.00215	0.01333	0.02211	335	335	335	0	0	1	-360	360	-39.1459	-33.3955	39.1971	31.3170	0.0000	0.0000	0.0000	0.0000;
	117	87	0.00079	0.00488	0.00726	137	137	137	0	0	1	-360	360	8.1804	-0.8526	-8.1800	-0.0000	0.0000	0.0000	0.0000	0.0000;
	118	86	0.00079	0.00488	0.00724	137	137	137	0	0	1	-360	360	9.3506	-0.8494	-9.3500	-0.0000	0.0000	0.0000	0.0000	0.0000;
	110	146	0.00241	0.02782	0.77066	1386	1386	1386	0	0	1	-360	360	158.5470	-72.9851	-157.9706	-4.8857	0.0000	0.0000	0.0000	0.0000;
	99	147	0.00213	0.02432	0.67744	1386	1386	1386	0	0	1	-360	360	35.2835	-40.4360	-35.2593	-33.9687	0.0000	0.0000	0.0000	0.0000;
	140	132	0.00091	0.0104	0.28989	1358	1358	1358	0	0	1	-360	360	-99.4261	31.8440	99.5266	-62.5332	0.0000	0.0000	0.0000	0.0000;
	141	139	0.00312	0.03563	0.99107	831	831	831	0	0	1	-360	360	275.9355	-57.7674	-273.7800	-26.5557	0.0000	0.0000	0.0000	0.0000;
	132	147	0.00092	0.01051	0.29293	1358	1358	1358	0	0	1	-360	360	-186.7253	-36.9096	187.0221	8.1263	0.0000	0.0000	0.0000	0.0000;
	202	181	0.01039	0.08983	0.11422	461	461	461	0	0	1	-360	360	-271.4568	-50.8311	279.0553	103.5783	0.0000	0.0000	0.0000	0.0000;
	203	180	0.01039	0.08983	0.11422	461	461	461	0	0	1	-360	360	-271.5018	-50.8247	279.1029	103.5939	0.0000	0.0000	0.0000	0.0000;
	205	180	0.01455	0.0813	0.13279	362	362	362	0	0	1	-360	360	-142.7746	-36.2572	145.5033	35.8143	0.0000	0.0000	0.0000	0.0000;
	206	181	0.01455	0.0813	0.13279	362	362	362	0	0	1	-360	360	-142.8741	-36.2173	145.6062	35.7928	0.0000	0.0000	0.0000	0.0000;
	158	206	0.00519	0.03965	0.05836	427	427	427	0	0	1	-360	360	-115.8586	-9.3702	116.4867	7.6230	0.0000	0.0000	0.0000	0.0000;
	158	168	0.00083	0.00645	0.00951	427	427	427	0	0	1	-360	360	76.6971	-0.1888	-76.6532	-0.5271	0.0000	0.0000	0.0000	0.0000;
	192	163	0.01105	0.08107	0.12824	446	446	446	0	0	1	-360	360	228.6299	53.4217	-223.3590	-29.0491	0.0000	0.0000	0.0000	0.0000;
	159	182	0.00597	0.04473	0.06735	427	427	427	0	0	1	-360	360	-192.8667	-42.7057	194.8455	49.4502	0.0000	0.0000	0.0000	0.0000;
	199	202	0.01736	0.10969	0.16268	305	305	305	0	0	1	-360	360	-130.3893	25.9207	133.4135	-23.7237	0.0000	0.0000	0.0000	0.0000;
	176	203	0.00938	0.06093	0.08934	415	415	415	0	0	1	-360	360	-175.2137	-3.7038	178.1184	13.5189	0.0000	0.0000	0.0000	0.0000;
	179	181	0.01246	0.09134	0.14349	476	476	476	0	0	1	-360	360	-288.9542	-3.4586	298.3803	55.7975	0.0000	0.0000	0.0000	0.0000;
	156	160	0.00514	0.03826	0.05933	305	305	305	0	0	1	-360	360	-101.8045	-36.0254	102.3243	33.0775	0.0000	0.0000	0.0000	0.0000;
	172	166	0.01062	0.0789	0.12085	427	427	427	0	0	1	-360	360	-25.3512	38.6329	25.5915	-51.1848	0.0000	0.0000	0.0000	0.0000;
	178	209	0.00769	0.0569	0.08673	373	373	373	0	0	1	-360	360	20.3673	70.6732	-19.9417	-76.7206	0.0000	0.0000	0.0000	0.0000;
	178	208	0.00225	0.01667	0.02541	286	286	286	0	0	1	-360	360	-183.9918	-94.9141	184.8600	98.4900	0.0000	0.0000	0.0000	0.0000;
	199	170	0.01851	0.1088	0.14435	335	335	335	0	0	1	-360	360	-184.1805	-15.9307	190.2079	35.3797	0.0000	0.0000	0.0000	0.0000;
	204	198	0.00236	0.01411	0.02031	229	229	229	0	0	1	-360	360	-102.6765	-55.8329	102.9889	55.6010	0.0000	0.0000	0.0000	0.0000;
	198	163	0.00355	0.02607	0.04096	446	446	446	0	0	1	-360	360	-70.6890	-15.4845	70.8650	12.4755	0.0000	0.0000	0.0000	0.0000;
	199	194	0.013	0.07589	0.11484	362	362	362	0	0	1	-360	360	126.4392	-12.5145	-124.4430	12.2587	0.0000	0.0000	0.0000	0.0000;
...